29

O 1.1070385641233937 -0.14239138405002866 -2.1841049956555247
O -0.7575755544471737 1.9208382462684435 1.1962981884995851
O -5.0650275039680785 1.111223955867845 0.29948784300036796
O -0.06031254301380063 -0.5821125466432344 2.1544906450914945
C 1.2231908079421698 -0.23788045710599187 -1.0077645832653817
C -1.1338299121966349 0.28682871317705333 -0.4505757054479926
C -2.2083245411141474 -0.755473561173605 -0.6095165736726349
C -3.505202995723023 -0.08331375511228875 -1.0068973982268676
C -3.929644533664083 0.9044055855374408 0.023615551846825986
C -1.5530053415449119 1.3444158434443712 0.5408398193821495
C 2.4588060793273585 -0.4288781115439982 -0.21342170977141056
C 3.771887885840174 -0.4603000104260157 -0.6131315921969329
C 4.738187923505228 -0.5331569241340678 0.3776048085262405
C 4.383857582216905 -0.5820139701570329 1.7173826774197134
C 3.053170683984961 -0.5820865497016621 2.104743867029906
C 2.107178866814839 -0.5067237423533155 1.1131436446331342
C 0.6294842687612953 -0.443447423448788 1.205917434466364
N 0.1815211479742696 -0.19904660512816794 -0.09409234973418217
N -2.902155492668355 1.5238281320962448 0.6991683435301917
H -0.9948837808797505 0.7438221124879013 -1.4154184921322706
H -1.905994047153361 -1.4264734466513418 -1.3835502616028414
H -2.3385246797780215 -1.2720946818729741 0.32412467035881215
H -3.377921157209118 0.3980551516026738 -1.9655650580348716
H -4.335571431921599 -0.7444538257336563 -1.1308618824108139
H -3.173407570683063 2.097354152715287 1.4603065791447454
H 4.038242522091666 -0.40833845048070083 -1.6523919718972109
H 5.778110456838865 -0.5421819814694566 0.10557248165804639
H 5.154492435555816 -0.6218689041338209 2.465741757518662
H 2.7704657291150148 -0.6250197877745577 3.1399335321865123
