9

O    -1.791877673524702 0.04319162676274693 1.1907335495431326
H    -2.015335472821182 -0.8663216382559942 1.0561755820176688
H    -0.8976333666258484 0.03804186368498364 1.5238714168994865
O    -0.5819310808553473 1.8750870632193268 -0.663716701715156
H    -0.9315905910804287 2.748369688123909 -0.5580113884459369
H    -1.2251414656605475 1.2998413661538188 -0.2558030837634151
O    1.0349868884797753 0.6110550930860232 1.3571978421212043
H    0.7709939797678111 1.190893032214683 0.6464147564371773
H    1.7317087953835923 0.08102193448131209 0.9979580565064232
