6

O    0.27989723350287776 0.07406662688931041 -0.06425626217829752
H    0.16697214808520974 -0.00909561684925151 0.8751758047325752
H    -0.59504021367014 0.19563707555748747 -0.4009302271335396
O    -0.028356393225079952 -0.19379923198414623 2.9147114293867773
H    0.7572014484327872 -0.32250227069517934 3.426636475211008
H    -0.739574223090975 -0.18306658302144457 3.5381327775355547
