3

O    0.0 0.0 0.0
H    0.30357590555774444 -0.8441269007182861 4.2810547096888256e-17
H    0.30357590555774167 0.8441269007182853 1.609560354289512e-16

O    1.0 0.0 0.0
H    0.30357590555774444 -0.8441269007182861 4.2810547096888256e-17
H    0.30357590555774167 0.8441269007182853 1.609560354289512e-16