9

O       -1.76957       -0.01382        0.94080
H       -2.19912       -0.75273        1.40199
H       -0.82564       -0.15198        1.19612
O       -0.49596        2.06662       -0.34951
H       -1.02729        2.68264       -0.87998
H       -1.19229        1.44915       -0.01917
O        0.96359        0.28758        1.17363
H        0.71600        1.04320        0.58796
H        1.92446        0.41052        1.24298
