9

O       -2.34426       -0.43912        0.15501
H       -2.62688       -0.89855       -0.65711
H       -3.16394       -0.42789        0.68269
O       -1.35447        2.29833       -0.42873
H       -0.50988        2.03980       -0.00221
H       -1.84723        1.46466       -0.32279
O        0.21247        0.39511        0.87420
H        0.73441       -0.28381        1.32981
H       -0.63610       -0.07029        0.70318
