6

O    0.5877312930090446 -0.6042058773589288 -0.8803297236159401
H    0.8859782160755909 -1.5006762201107051 -0.9151122006368556
H    0.8894748059221085 -0.28354992706308374 -0.03853816477526779
O    1.6268911822680094 0.5295242463226395 1.6818133503678478
H    1.295047728778857 0.39036860623494 2.557172036275834
H    1.7148647691350336 1.4685351726030744 1.594980703780493
