6

O    0.48724113953589976 -1.51546745161318 0.08773048060963366
H    1.0909865658886735 -2.1790638679132646 0.38597766879993306
H    0.8626398588180979 -0.6966212025112649 0.38947381388201546
O    1.5192264559281474 1.0893222670672165 1.1268894348592386
H    0.7989398186921356 1.6979836929682564 1.2148621919716283
H    2.2409501587978484 1.6038435652478684 0.7950462124303156
